/*--------------------------------*- C++ -*----------------------------------*\
| =========                 |                                                 |
| \\      /  F ield         | OpenFOAM: The Open Source CFD Toolbox           |
|  \\    /   O peration     | Version:  2412                                  |
|   \\  /    A nd           | Website:  www.openfoam.com                      |
|    \\/     M anipulation  |                                                 |
\*---------------------------------------------------------------------------*/
FoamFile
{
    version     2.0;
    format      ascii;
    arch        "LSB;label=32;scalar=64";
    class       dictionary;
    location    "0.01/uniform/functionObjects";
    object      functionObjectProperties;
}
// * * * * * * * * * * * * * * * * * * * * * * * * * * * * * * * * * * * * * //

cdf7e925f5746741c316f5fbcf39ad0dfca90775
{
    forces
    {
        scalar
        {
            Cd              1.19811065385932;
            CdPressure      1.19380198682953;
            CdViscous       0.004308667029789617;
            CdInternal      0;
            Cd(f)           0.5914240614415044;
            Cd(f)Pressure   0.5892680520983469;
            Cd(f)Viscous    0.002156009343157564;
            Cd(f)Internal   0;
            Cd(r)           0.6066865924178156;
            Cd(r)Pressure   0.6045339347311836;
            Cd(r)Viscous    0.002152657686632054;
            Cd(r)Internal   0;
            Cl              -0.004466063872102568;
            ClPressure      -0.004468782813099174;
            ClViscous       2.718940996606226e-06;
            ClInternal      0;
            Cl(f)           0.006817031741266651;
            Cl(f)Pressure   0.006817864468340634;
            Cl(f)Viscous    -8.327270739832191e-07;
            Cl(f)Internal   0;
            Cl(r)           -0.01128309561336922;
            Cl(r)Pressure   -0.01128664728143981;
            Cl(r)Viscous    3.551668070589445e-06;
            Cl(r)Internal   0;
            CmPitch         0.009050063677317935;
            CmPitchPressure 0.009052255874890221;
            CmPitchViscous  -2.192197572286332e-06;
            CmPitchInternal 0;
            CmRoll          -0.007631265488155622;
            CmRollPressure  -0.007632941316418377;
            CmRollViscous   1.675828262754954e-06;
            CmRollInternal  0;
            CmYaw           -0.007800696404663523;
            CmYawPressure   -0.00780400588453993;
            CmYawViscous    3.309479876407958e-06;
            CmYawInternal   0;
            Cs              0.007058462278185446;
            CsPressure      0.00706263339419294;
            CsViscous       -4.171116007494608e-06;
            CsInternal      0;
            Cs(f)           -0.004271465265570799;
            Cs(f)Pressure   -0.00427268918744346;
            Cs(f)Viscous    1.223921872660654e-06;
            Cs(f)Internal   0;
            Cs(r)           0.01132992754375624;
            Cs(r)Pressure   0.0113353225816364;
            Cs(r)Viscous    -5.395037880155262e-06;
            Cs(r)Internal   0;
        }
    }
    solverInfo
    {
        scalar
        {
            Ux_initial      7.182150000000001e-08;
            Ux_final        7.182150000000001e-08;
            Uy_initial      1.15721e-07;
            Uy_final        1.15721e-07;
            Uz_initial      1.3968e-09;
            Uz_final        1.3968e-09;
            e_initial       8.60805e-10;
            e_final         8.60805e-10;
        }
        label
        {
            Ux_iters        0;
            Uy_iters        0;
            Uz_iters        0;
            e_iters         0;
        }
    }
}


// ************************************************************************* //
