FoamFile { version 2.0; format ascii; class volScalarField; object T; }
dimensions      [0 0 0 1 0 0 0];
internalField   uniform 300;
boundaryField
{
    inlet       { type fixedValue; value uniform 300; }
    outlet      { type zeroGradient; }
    atmosphere  { type zeroGradient; }
    rocket      { type zeroGradient; }
    symmetry_planes
    {
        type            symmetry;
    }
}