/*--------------------------------*- C++ -*----------------------------------*\
| =========                 |                                                 |
| \\      /  F ield         | OpenFOAM: The Open Source CFD Toolbox           |
|  \\    /   O peration     | Version:  v2012                                 |
|   \\  /    A nd           | Website:  www.openfoam.com                      |
|    \\/     M anipulation  |                                                 |
\*---------------------------------------------------------------------------*/
FoamFile
{
    version     2.0;
    format      ascii;
    class       dictionary;
    object      blockMeshDict;
}
// * * * * * * * * * * * * * * * * * * * * * * * * * * * * * * * * * * * * * //

scale   1;

vertices
(
    // Bottom Square (Inlet side, Z = -100)
    ( 0  0 -100)  // 0: Origin/Symmetry Corner
    (25  0 -100)  // 1: +X Corner
    (25 25 -100)  // 2: +X +Y Corner
    ( 0 25 -100)  // 3: +Y Corner

    // Top Square (Outlet side, Z = 30)
    ( 0  0   30)  // 4
    (25  0   30)  // 5
    (25 25   30)  // 6
    ( 0 25   30)  // 7
);

blocks
(
    // (X-cells Y-cells Z-cells)
    // 10 cells for width 25 = 2.5 units per cell (Matches original resolution)
    hex (0 1 2 3 4 5 6 7) (10 10 40) simpleGrading (1 1 1)
);

edges
(
);

boundary
(
    inlet
    {
        type patch;
        faces
        (
            (0 1 2 3)
        );
    }

    outlet
    {
        type patch;
        faces
        (
            (4 5 6 7)
        );
    }

    // New Symmetry Planes sitting on the X=0 and Y=0 axes
    symmetry_planes
    {
        type symmetry;
        faces
        (
            (0 3 7 4) // Plane at X=0
            (0 4 5 1) // Plane at Y=0
        );
    }

    // Outer far-field walls
    atmosphere
    {
        type patch;
        faces
        (
            (1 2 6 5) // Right Wall (X=25)
            (2 3 7 6) // Back Wall  (Y=25)
        );
    }
);

mergePatchPairs
(
);

// ************************************************************************* //