/* system/fvOptions.compressible */
FoamFile
{
    version     2.0;
    format      ascii;
    class       dictionary;
    location    "system";
    object      fvOptions;
}

limitT
{
    type            limitTemperature;
    active          yes;
    selectionMode   all;
    min             50;
    max             5000;
}