FoamFile { version 2.0; format ascii; class volVectorField; object U; }
dimensions      [0 1 -1 0 0 0 0];
internalField   uniform (0 0 -500);  // <--- KEY: Starts at rest
boundaryField
{
    inlet       { type fixedValue; value uniform (0 0 -500); } // <--- Inlet blows in
    outlet      { type zeroGradient; }
    atmosphere  { type slip; }
    rocket      { type noSlip; }
    symmetry_planes
    {
        type            symmetry;
    }
}
