/*--------------------------------*- C++ -*----------------------------------*| =========                 |                                                 |
| \      /  F ield         | OpenFOAM: The Open Source CFD Toolbox           |
|  \    /   O peration     | Version:  v2412                                 |
|   \  /    A nd           | Web:      www.OpenFOAM.com                      |
|    \/     M anipulation  |                                                 |
\*---------------------------------------------------------------------------*/
/* system/fvSchemes.compressible */
/* system/fvSchemes.compressible */
FoamFile
{
    version     2.0;
    format      ascii;
    class       dictionary;
    location    "system";
    object      fvSchemes;
}
// * * * * * * * * * * * * * * * * * * * * * * * * * * * * * * * * * * * * * //

ddtSchemes
{
    default         Euler;
}

gradSchemes
{
    // "cellLimited" prevents vacuum crashes at the tail
    default         cellLimited Gauss linear 1.0;
}

divSchemes
{
    // divSchemes REQUIRE "Gauss"
    default         none;

    // --- RhoCentralFoam Specifics ---
    div(tauMC)      Gauss linear;
    div(phi,nut)    Gauss upwind;
    
    // ENERGY & PRESSURE: Switched to Minmod (Stable)
    div(phi,e)      Gauss upwind;  // Was Gauss Minmod    
    div(phi,K)      Gauss Minmod;
    div(phid,p)     Gauss Minmod;
    div(phiv,p)     Gauss Minmod;
    
    // --- TURBULENCE ---
    div(phi,k)      bounded Gauss upwind;
    div(phi,omega)  bounded Gauss upwind;
    
    // MOMENTUM
    div(phi,U)      Gauss Minmod;
}

laplacianSchemes
{
    default         Gauss linear corrected;
}

interpolationSchemes
{
    // interpolationSchemes DO NOT use "Gauss"
    default         linear;
    
    // RECONSTRUCTION: Just "Minmod" (No Gauss!)
    reconstruct(rho) Minmod;
    reconstruct(U)   Minmod;
    reconstruct(T)   upwind;       // Was Minmod    
    reconstruct(e)   Minmod;
}

snGradSchemes
{
    default         corrected;
}

wallDist
{
    method meshWave; 
}
