FoamFile
{
    version     2.0;
    format      ascii;
    class       dictionary;
    object      surfaceFeatureExtractDict;
}

rocket_quadrant.stl
{
    extractionMethod    extractFromSurface;
    includedAngle       150;
    subsetFeatures
    {
        nonManifoldEdges    no;
        openEdges           yes;
    }
}