/*--------------------------------*- C++ -*----------------------------------*\
| =========                 |                                                 |
| \\      /  F ield         | OpenFOAM: The Open Source CFD Toolbox           |
|  \\    /   O peration     | Version:  2412                                  |
|   \\  /    A nd           | Website:  www.openfoam.com                      |
|    \\/     M anipulation  |                                                 |
\*---------------------------------------------------------------------------*/
FoamFile
{
    version     2.0;
    format      ascii;
    arch        "LSB;label=32;scalar=64";
    class       extendedFeatureEdgeMesh;
    location    "constant/extendedFeatureEdgeMesh";
    object      rocket.extendedFeatureEdgeMesh;
}
// * * * * * * * * * * * * * * * * * * * * * * * * * * * * * * * * * * * * * //

// points

676
(
(3 0.05 1)
(3 -0.05 1)
(3 -0.05 0)
(0.05 -3 0)
(-0.05 -3 0)
(-0.05 3 0)
(0.05 3 0)
(3 0.05 0)
(-3 -0.05 0)
(-3 0.05 0)
(0.05 -3 1)
(-0.05 -3 1)
(-3 -0.05 1)
(-3 0.05 1)
(-0.05 3 1)
(0.05 3 1)
(0.00953835 0.0589382 12.8209)
(-0.0178576 0.0855751 12.7377)
(-0.088036 0.0265122 12.7242)
(-0.0440507 0.0170353 12.8583)
(0.0543363 0.0577755 12.7621)
(0.0134377 0.113463 12.6572)
(-0.00360218 -0.0791006 12.7625)
(0.0541534 -0.0788977 12.7129)
(-2.22045e-16 5.43852e-32 13)
(0.998749 -0.05 1.97622)
(0.998749 0.05 1.97622)
(0.05 -0.998749 1.97622)
(-0.998749 -0.05 1.97622)
(-0.998749 0.05 1.97622)
(-0.05 0.998749 1.97622)
(0.05 0.998749 1.97622)
(-0.05 -0.998749 1.97622)
(0.05 0.998749 0)
(-0.05 -0.998749 0)
(-0.998749 0.05 0)
(0.998749 -0.05 0)
(0.998749 0.05 0)
(0.05 -0.998749 0)
(-0.05 0.998749 0)
(-0.998749 -0.05 0)
(0.03125 -7.65404e-18 12.9062)
(-0.0392566 -0.0457667 12.8191)
(0.0162725 -0.0358738 12.8818)
(0.0625 -1.53081e-17 12.8125)
(-0.857569 -0.51437 0)
(-0.803096 -0.595849 0)
(-0.671605 -0.740909 0)
(-0.595849 -0.803096 0)
(-0.740909 0.671605 0)
(-0.803096 0.595849 0)
(0.803096 -0.595849 0)
(0.857569 -0.51437 0)
(-0.903803 0.427949 0)
(-0.941355 0.337417 0)
(0.903803 -0.427949 0)
(0.903803 0.427949 0)
(0.857569 0.51437 0)
(-0.857569 0.51437 0)
(-0.51437 -0.857569 0)
(-0.427949 -0.903803 0)
(0.671605 -0.740909 0)
(0.740909 -0.671605 0)
(0.740909 0.671605 0)
(0.671605 0.740909 0)
(-0.740909 -0.671605 0)
(-0.671605 0.740909 0)
(-0.337417 -0.941355 0)
(0.51437 0.857569 0)
(0.427949 0.903803 0)
(0.427949 -0.903803 0)
(0.51437 -0.857569 0)
(-0.903803 -0.427949 0)
(-0.427949 0.903803 0)
(-0.51437 0.857569 0)
(-0.941355 -0.337417 0)
(-0.969865 0.243644 0)
(-0.243644 -0.969865 0)
(0.941355 -0.337417 0)
(0.969865 -0.243644 0)
(0.969865 0.243644 0)
(0.941355 0.337417 0)
(0.337417 0.941355 0)
(-0.337417 0.941355 0)
(0.243644 0.969865 0)
(0.243644 -0.969865 0)
(0.337417 -0.941355 0)
(-0.969865 -0.243644 0)
(-0.243644 0.969865 0)
(-0.989057 0.147531 0)
(-0.147531 -0.989057 0)
(0.989057 -0.147531 0)
(0.989057 0.147531 0)
(0.147531 0.989057 0)
(-0.989057 -0.147531 0)
(-0.147531 0.989057 0)
(0.147531 -0.989057 0)
(0.803096 0.595849 0)
(-0.595849 0.803096 0)
(0.595849 0.803096 0)
(0.595849 -0.803096 0)
(1.08576 -0.05 1.93378)
(1.08576 0.05 1.93378)
(2.30391 0.05 1.33955)
(2.2169 0.05 1.382)
(1.95587 -0.05 1.50933)
(2.04288 -0.05 1.46689)
(2.04288 0.05 1.46689)
(1.95587 0.05 1.50933)
(1.78185 -0.05 1.59422)
(1.86886 -0.05 1.55178)
(1.78185 0.05 1.59422)
(1.69484 0.05 1.63667)
(1.4338 -0.05 1.764)
(1.52081 -0.05 1.72155)
(1.52081 0.05 1.72155)
(1.4338 0.05 1.764)
(1.17277 -0.05 1.89133)
(1.25978 -0.05 1.84889)
(1.25978 0.05 1.84889)
(1.17277 0.05 1.89133)
(1.69484 -0.05 1.63667)
(1.86886 0.05 1.55178)
(1.60783 -0.05 1.67911)
(1.60783 0.05 1.67911)
(2.82598 -0.05 1.08489)
(2.91299 -0.05 1.04244)
(2.65196 -0.05 1.16978)
(2.73897 -0.05 1.12733)
(2.39092 -0.05 1.29711)
(2.47793 -0.05 1.25467)
(2.30391 -0.05 1.33955)
(2.12989 -0.05 1.42444)
(1.34679 -0.05 1.80644)
(2.91299 0.05 1.04244)
(2.82598 0.05 1.08489)
(2.73897 0.05 1.12733)
(2.65196 0.05 1.16978)
(2.47793 0.05 1.25467)
(2.39092 0.05 1.29711)
(2.12989 0.05 1.42444)
(1.34679 0.05 1.80644)
(2.56495 -0.05 1.21222)
(2.2169 -0.05 1.382)
(2.56495 0.05 1.21222)
(3 -0.05 0.7)
(3 -0.05 0.8)
(3 -0.05 0.5)
(3 -0.05 0.6)
(3 -0.05 0.1)
(3 -0.05 0.2)
(3 -0.05 0.3)
(3 -0.05 0.4)
(3 -0.05 0.9)
(1.76113 -0.05 0)
(1.85643 -0.05 0)
(1.95173 -0.05 0)
(2.04702 -0.05 0)
(2.14232 -0.05 0)
(2.23762 -0.05 0)
(2.33292 -0.05 0)
(1.47524 -0.05 0)
(1.57054 -0.05 0)
(2.42821 -0.05 0)
(1.28464 -0.05 0)
(1.37994 -0.05 0)
(2.52351 -0.05 0)
(2.61881 -0.05 0)
(2.71411 -0.05 0)
(1.09405 -0.05 0)
(1.18934 -0.05 0)
(2.8094 -0.05 0)
(2.9047 -0.05 0)
(1.66583 -0.05 0)
(0.05 -2.9047 0)
(2.61881 0.05 0)
(2.71411 0.05 0)
(-0.05 1.09405 0)
(-0.05 -2.8094 0)
(-0.05 -2.71411 0)
(-0.05 -1.09405 0)
(-1.09405 -0.05 0)
(-1.09405 0.05 0)
(-0.05 2.61881 0)
(-0.05 2.71411 0)
(-2.8094 0.05 0)
(-2.71411 0.05 0)
(-2.61881 -0.05 0)
(-2.71411 -0.05 0)
(0.05 2.9047 0)
(0.05 -1.09405 0)
(0.05 -1.18934 0)
(0.05 -1.37994 0)
(0.05 -1.47524 0)
(1.76113 0.05 0)
(1.85643 0.05 0)
(-0.05 2.23762 0)
(-0.05 2.33292 0)
(0.05 -2.52351 0)
(0.05 -2.61881 0)
(-0.05 1.47524 0)
(-0.05 1.57054 0)
(-0.05 2.8094 0)
(-0.05 2.9047 0)
(-0.05 1.28464 0)
(-0.05 1.37994 0)
(-0.05 -2.23762 0)
(-0.05 -2.14232 0)
(-2.23762 -0.05 0)
(-2.33292 -0.05 0)
(-0.05 1.66583 0)
(2.9047 0.05 0)
(-2.9047 0.05 0)
(-2.9047 -0.05 0)
(0.05 1.85643 0)
(0.05 1.76113 0)
(-1.95173 0.05 0)
(-1.85643 0.05 0)
(-1.85643 -0.05 0)
(-1.95173 -0.05 0)
(1.09405 0.05 0)
(-0.05 2.14232 0)
(-0.05 -1.95173 0)
(-0.05 -1.85643 0)
(-0.05 1.18934 0)
(-0.05 -2.04702 0)
(-0.05 2.42821 0)
(-0.05 -2.42821 0)
(-0.05 -2.33292 0)
(0.05 -2.71411 0)
(1.18934 0.05 0)
(1.28464 0.05 0)
(1.37994 0.05 0)
(-1.28464 0.05 0)
(-1.18934 0.05 0)
(-1.28464 -0.05 0)
(-1.37994 -0.05 0)
(-0.05 -1.57054 0)
(-0.05 -1.47524 0)
(0.05 1.28464 0)
(0.05 1.18934 0)
(-0.05 1.76113 0)
(-0.05 1.85643 0)
(-0.05 2.04702 0)
(-0.05 -1.28464 0)
(-0.05 -1.18934 0)
(0.05 2.33292 0)
(0.05 2.23762 0)
(-0.05 -1.76113 0)
(-0.05 -1.66583 0)
(2.04702 0.05 0)
(2.14232 0.05 0)
(2.23762 0.05 0)
(2.33292 0.05 0)
(2.8094 0.05 0)
(-2.23762 0.05 0)
(-2.14232 0.05 0)
(-2.42821 0.05 0)
(-2.33292 0.05 0)
(-2.14232 -0.05 0)
(-2.42821 -0.05 0)
(0.05 1.95173 0)
(0.05 -1.95173 0)
(0.05 -2.04702 0)
(0.05 2.61881 0)
(0.05 2.52351 0)
(-0.05 -2.52351 0)
(0.05 -2.14232 0)
(0.05 -2.23762 0)
(1.57054 0.05 0)
(1.66583 0.05 0)
(-0.05 -2.9047 0)
(0.05 1.57054 0)
(0.05 1.47524 0)
(0.05 -1.28464 0)
(0.05 2.71411 0)
(-0.05 2.52351 0)
(0.05 -1.76113 0)
(0.05 -1.85643 0)
(0.05 -2.33292 0)
(1.47524 0.05 0)
(1.95173 0.05 0)
(2.42821 0.05 0)
(2.52351 0.05 0)
(0.05 2.04702 0)
(-0.05 1.95173 0)
(-1.47524 0.05 0)
(-1.37994 0.05 0)
(-1.57054 0.05 0)
(-1.66583 0.05 0)
(-1.76113 0.05 0)
(-2.04702 0.05 0)
(-2.52351 0.05 0)
(-2.61881 0.05 0)
(-1.18934 -0.05 0)
(-1.47524 -0.05 0)
(-1.57054 -0.05 0)
(-1.66583 -0.05 0)
(-1.76113 -0.05 0)
(-2.04702 -0.05 0)
(-2.52351 -0.05 0)
(-2.8094 -0.05 0)
(0.05 2.42821 0)
(0.05 -2.42821 0)
(0.05 1.37994 0)
(0.05 -1.57054 0)
(0.05 -1.66583 0)
(0.05 -2.8094 0)
(0.05 2.14232 0)
(0.05 1.09405 0)
(0.05 1.66583 0)
(-0.05 -1.37994 0)
(0.05 2.8094 0)
(-0.05 -2.61881 0)
(0.05 -3 0.8)
(0.05 -3 0.7)
(0.05 -3 0.6)
(0.05 -3 0.5)
(0.05 -1.08576 1.93378)
(0.05 -1.17277 1.89133)
(0.05 -3 0.2)
(0.05 -3 0.1)
(0.05 -3 0.4)
(0.05 -3 0.3)
(0.05 -3 0.9)
(0.05 -2.39092 1.29711)
(0.05 -2.47793 1.25467)
(0.05 -2.2169 1.382)
(0.05 -2.30391 1.33955)
(0.05 -2.04288 1.46689)
(0.05 -2.12989 1.42444)
(0.05 -2.56495 1.21222)
(0.05 -1.86886 1.55178)
(0.05 -1.95587 1.50933)
(0.05 -1.78185 1.59422)
(0.05 -2.65196 1.16978)
(0.05 -1.52081 1.72155)
(0.05 -1.60783 1.67911)
(0.05 -1.4338 1.764)
(0.05 -1.34679 1.80644)
(0.05 -1.25978 1.84889)
(0.05 -2.73897 1.12733)
(0.05 -2.82598 1.08489)
(0.05 -2.91299 1.04244)
(0.05 -1.69484 1.63667)
(-0.05 -2.82598 1.08489)
(-0.05 -2.91299 1.04244)
(-0.05 -2.65196 1.16978)
(-0.05 -2.73897 1.12733)
(-0.05 -2.30391 1.33955)
(-0.05 -2.39092 1.29711)
(-0.05 -1.78185 1.59422)
(-0.05 -1.86886 1.55178)
(-0.05 -1.17277 1.89133)
(-0.05 -1.25978 1.84889)
(-0.05 -1.95587 1.50933)
(-0.05 -2.04288 1.46689)
(-0.05 -1.60783 1.67911)
(-0.05 -1.69484 1.63667)
(-0.05 -1.08576 1.93378)
(-0.05 -1.4338 1.764)
(-0.05 -1.52081 1.72155)
(-0.05 -1.34679 1.80644)
(-0.05 -2.12989 1.42444)
(-0.05 -2.2169 1.382)
(-0.05 -2.56495 1.21222)
(-0.05 -2.47793 1.25467)
(-0.05 -3 0.7)
(-0.05 -3 0.8)
(-0.05 -3 0.5)
(-0.05 -3 0.6)
(-0.05 -3 0.1)
(-0.05 -3 0.2)
(-0.05 -3 0.3)
(-0.05 -3 0.4)
(-0.05 -3 0.9)
(-3 -0.05 0.8)
(-3 -0.05 0.7)
(-3 -0.05 0.6)
(-3 -0.05 0.5)
(-1.08576 -0.05 1.93378)
(-1.17277 -0.05 1.89133)
(-3 -0.05 0.2)
(-3 -0.05 0.1)
(-3 -0.05 0.4)
(-3 -0.05 0.3)
(-3 -0.05 0.9)
(-2.39092 -0.05 1.29711)
(-2.47793 -0.05 1.25467)
(-2.2169 -0.05 1.382)
(-2.30391 -0.05 1.33955)
(-2.04288 -0.05 1.46689)
(-2.12989 -0.05 1.42444)
(-2.56495 -0.05 1.21222)
(-1.86886 -0.05 1.55178)
(-1.95587 -0.05 1.50933)
(-1.78185 -0.05 1.59422)
(-2.65196 -0.05 1.16978)
(-1.52081 -0.05 1.72155)
(-1.60783 -0.05 1.67911)
(-1.4338 -0.05 1.764)
(-1.34679 -0.05 1.80644)
(-1.25978 -0.05 1.84889)
(-2.73897 -0.05 1.12733)
(-2.82598 -0.05 1.08489)
(-2.91299 -0.05 1.04244)
(-1.69484 -0.05 1.63667)
(-2.82598 0.05 1.08489)
(-2.91299 0.05 1.04244)
(-2.65196 0.05 1.16978)
(-2.73897 0.05 1.12733)
(-2.47793 0.05 1.25467)
(-2.56495 0.05 1.21222)
(-2.30391 0.05 1.33955)
(-2.39092 0.05 1.29711)
(-1.78185 0.05 1.59422)
(-1.86886 0.05 1.55178)
(-1.17277 0.05 1.89133)
(-1.25978 0.05 1.84889)
(-1.95587 0.05 1.50933)
(-2.04288 0.05 1.46689)
(-1.60783 0.05 1.67911)
(-1.69484 0.05 1.63667)
(-1.08576 0.05 1.93378)
(-1.4338 0.05 1.764)
(-1.52081 0.05 1.72155)
(-1.34679 0.05 1.80644)
(-2.12989 0.05 1.42444)
(-2.2169 0.05 1.382)
(-3 0.05 0.7)
(-3 0.05 0.8)
(-3 0.05 0.5)
(-3 0.05 0.6)
(-3 0.05 0.1)
(-3 0.05 0.2)
(-3 0.05 0.3)
(-3 0.05 0.4)
(-3 0.05 0.9)
(-0.05 3 0.8)
(-0.05 3 0.7)
(-0.05 3 0.6)
(-0.05 3 0.5)
(-0.05 1.08576 1.93378)
(-0.05 1.17277 1.89133)
(-0.05 3 0.2)
(-0.05 3 0.1)
(-0.05 3 0.4)
(-0.05 3 0.3)
(-0.05 3 0.9)
(-0.05 2.39092 1.29711)
(-0.05 2.47793 1.25467)
(-0.05 2.2169 1.382)
(-0.05 2.30391 1.33955)
(-0.05 2.04288 1.46689)
(-0.05 2.12989 1.42444)
(-0.05 2.56495 1.21222)
(-0.05 1.86886 1.55178)
(-0.05 1.95587 1.50933)
(-0.05 1.78185 1.59422)
(-0.05 2.65196 1.16978)
(-0.05 1.52081 1.72155)
(-0.05 1.60783 1.67911)
(-0.05 1.4338 1.764)
(-0.05 1.34679 1.80644)
(-0.05 1.25978 1.84889)
(-0.05 2.73897 1.12733)
(-0.05 2.82598 1.08489)
(-0.05 2.91299 1.04244)
(-0.05 1.69484 1.63667)
(0.05 2.82598 1.08489)
(0.05 2.91299 1.04244)
(0.05 2.30391 1.33955)
(0.05 2.39092 1.29711)
(0.05 2.65196 1.16978)
(0.05 2.73897 1.12733)
(0.05 2.47793 1.25467)
(0.05 2.56495 1.21222)
(0.05 1.78185 1.59422)
(0.05 1.86886 1.55178)
(0.05 1.17277 1.89133)
(0.05 1.25978 1.84889)
(0.05 1.95587 1.50933)
(0.05 2.04288 1.46689)
(0.05 1.60783 1.67911)
(0.05 1.69484 1.63667)
(0.05 1.08576 1.93378)
(0.05 1.4338 1.764)
(0.05 1.52081 1.72155)
(0.05 1.34679 1.80644)
(0.05 2.12989 1.42444)
(0.05 2.2169 1.382)
(0.05 3 0.7)
(0.05 3 0.8)
(0.05 3 0.5)
(0.05 3 0.6)
(0.05 3 0.1)
(0.05 3 0.2)
(0.05 3 0.3)
(0.05 3 0.4)
(0.05 3 0.9)
(3 0.05 0.8)
(3 0.05 0.7)
(3 0.05 0.6)
(3 0.05 0.5)
(3 0.05 0.2)
(3 0.05 0.1)
(3 0.05 0.4)
(3 0.05 0.3)
(3 0.05 0.9)
(-0.0636443 0.0268017 12.7928)
(-0.0779066 0.0863995 12.651)
(0.067765 0.0779738 12.6901)
(0.0766551 0.109899 12.598)
(-0.0278339 0.135411 12.5853)
(-0.073125 -0.0428767 12.7457)
(-0.042302 -0.100399 12.6732)
(0.0531842 -0.11779 12.6123)
(0.09375 -2.29621e-17 12.7188)
(0.125 -3.06162e-17 12.625)
(0.0185317 -0.0138513 12.9306)
(-0.116449 -0.0187119 12.6462)
(0.0984032 -0.063062 12.6494)
(0.121434 -0.0810504 12.562)
(0.998749 -0.05 1.87741)
(0.998749 0.05 1.87741)
(0.998749 -0.05 1.67979)
(0.998749 -0.05 1.7786)
(0.05 -0.998749 0.592866)
(0.05 -0.998749 0.494055)
(0.998749 0.05 1.7786)
(0.998749 -0.05 1.58098)
(-0.05 0.998749 0.691677)
(-0.05 0.998749 0.592866)
(0.998749 0.05 1.67979)
(0.998749 0.05 1.58098)
(-0.998749 -0.05 0.691677)
(-0.998749 -0.05 0.592866)
(0.05 -0.998749 1.87741)
(0.998749 0.05 1.48216)
(0.998749 -0.05 1.28454)
(0.998749 -0.05 1.38335)
(0.998749 0.05 1.18573)
(0.998749 0.05 1.08692)
(0.998749 0.05 1.38335)
(0.998749 0.05 1.28454)
(0.05 -0.998749 1.7786)
(0.05 -0.998749 1.67979)
(0.05 -0.998749 1.58098)
(0.05 0.998749 1.7786)
(0.05 0.998749 1.87741)
(0.05 -0.998749 0.691677)
(0.998749 -0.05 1.08692)
(0.998749 -0.05 1.18573)
(0.998749 -0.05 0.889299)
(0.998749 -0.05 0.98811)
(0.05 0.998749 1.58098)
(0.05 0.998749 1.67979)
(0.05 -0.998749 1.48216)
(0.05 -0.998749 0.889299)
(0.05 -0.998749 0.790488)
(-0.05 -0.998749 0.098811)
(-0.05 -0.998749 0.197622)
(-0.998749 0.05 0.098811)
(-0.998749 0.05 0.197622)
(0.998749 -0.05 0.098811)
(0.998749 -0.05 0.197622)
(0.998749 0.05 0.197622)
(0.998749 0.05 0.098811)
(0.05 -0.998749 1.38335)
(0.05 -0.998749 1.28454)
(0.05 0.998749 1.28454)
(0.05 0.998749 1.38335)
(0.05 -0.998749 0.197622)
(0.05 -0.998749 0.098811)
(-0.05 0.998749 0.197622)
(-0.05 0.998749 0.098811)
(-0.998749 -0.05 0.197622)
(-0.998749 -0.05 0.098811)
(0.05 0.998749 1.08692)
(0.05 0.998749 1.18573)
(0.05 -0.998749 0.296433)
(-0.05 0.998749 0.296433)
(-0.998749 -0.05 0.296433)
(0.05 0.998749 0.197622)
(0.05 0.998749 0.296433)
(0.05 -0.998749 1.08692)
(0.05 -0.998749 0.98811)
(-0.998749 0.05 0.296433)
(-0.998749 0.05 0.395244)
(-0.05 -0.998749 0.296433)
(-0.05 -0.998749 0.395244)
(0.998749 -0.05 0.296433)
(0.998749 -0.05 0.395244)
(0.998749 0.05 0.395244)
(0.998749 0.05 0.296433)
(0.05 0.998749 0.098811)
(0.05 0.998749 0.98811)
(-0.998749 0.05 0.494055)
(-0.05 -0.998749 0.494055)
(0.05 0.998749 0.494055)
(0.05 0.998749 0.592866)
(0.05 0.998749 0.790488)
(0.05 0.998749 0.889299)
(0.998749 0.05 0.592866)
(0.998749 0.05 0.494055)
(0.05 0.998749 0.395244)
(-0.05 0.998749 0.395244)
(-0.05 0.998749 0.494055)
(-0.998749 -0.05 0.494055)
(-0.998749 -0.05 0.395244)
(0.05 -0.998749 0.395244)
(0.998749 -0.05 0.592866)
(0.998749 -0.05 0.691677)
(0.998749 0.05 0.691677)
(0.998749 -0.05 1.48216)
(-0.998749 0.05 0.592866)
(-0.998749 0.05 0.691677)
(-0.05 -0.998749 0.592866)
(-0.05 -0.998749 0.691677)
(0.05 0.998749 0.691677)
(-0.05 0.998749 0.790488)
(-0.998749 -0.05 0.790488)
(0.998749 -0.05 0.790488)
(0.998749 0.05 0.889299)
(0.998749 0.05 0.790488)
(-0.998749 -0.05 0.889299)
(-0.998749 -0.05 0.98811)
(-0.05 0.998749 0.98811)
(-0.05 0.998749 0.889299)
(0.998749 0.05 0.98811)
(-0.998749 -0.05 1.18573)
(-0.998749 -0.05 1.08692)
(-0.05 0.998749 1.18573)
(-0.05 0.998749 1.08692)
(-0.05 -0.998749 0.98811)
(-0.05 -0.998749 1.08692)
(-0.998749 0.05 0.98811)
(-0.998749 0.05 1.08692)
(-0.05 0.998749 1.48216)
(-0.05 0.998749 1.38335)
(-0.998749 0.05 1.18573)
(-0.998749 -0.05 1.7786)
(-0.998749 -0.05 1.67979)
(-0.998749 0.05 1.28454)
(-0.998749 0.05 1.38335)
(-0.998749 0.05 0.889299)
(-0.05 -0.998749 0.889299)
(-0.05 0.998749 1.28454)
(-0.998749 -0.05 1.28454)
(-0.05 -0.998749 1.18573)
(-0.05 -0.998749 1.28454)
(-0.998749 0.05 1.48216)
(-0.998749 0.05 1.58098)
(-0.05 -0.998749 1.48216)
(-0.05 -0.998749 1.58098)
(-0.05 0.998749 1.58098)
(-0.998749 -0.05 1.58098)
(-0.998749 -0.05 1.48216)
(-0.998749 0.05 1.67979)
(-0.05 0.998749 1.87741)
(-0.05 0.998749 1.7786)
(-0.998749 -0.05 1.87741)
(-0.05 -0.998749 1.67979)
(-0.05 -0.998749 1.7786)
(-0.998749 0.05 1.7786)
(-0.998749 0.05 1.87741)
(-0.05 -0.998749 1.87741)
(-0.05 0.998749 1.67979)
(0.998749 -0.05 0.494055)
(-0.05 -0.998749 1.38335)
(0.05 0.998749 1.48216)
(0.05 -0.998749 1.18573)
(-0.998749 -0.05 1.38335)
(-0.998749 0.05 0.790488)
(-0.05 -0.998749 0.790488)
(1 -2.44929e-16 1.97561)
)

// edges

695
(
(45 46)
(47 48)
(49 50)
(51 52)
(53 54)
(52 55)
(56 57)
(58 53)
(59 60)
(61 62)
(63 64)
(65 47)
(66 49)
(60 67)
(68 69)
(70 71)
(72 45)
(73 74)
(75 72)
(54 76)
(67 77)
(78 79)
(80 81)
(69 82)
(83 73)
(82 84)
(85 86)
(87 75)
(88 83)
(81 56)
(76 89)
(77 90)
(79 91)
(92 80)
(84 93)
(94 87)
(95 88)
(96 85)
(57 97)
(55 78)
(46 65)
(98 66)
(48 59)
(50 58)
(97 63)
(93 33)
(90 34)
(89 35)
(91 36)
(37 92)
(38 96)
(39 95)
(40 94)
(74 98)
(62 51)
(64 99)
(100 61)
(99 68)
(71 100)
(86 70)
(25 101)
(102 26)
(1 0)
(103 104)
(105 106)
(107 108)
(109 110)
(111 112)
(113 114)
(115 116)
(117 118)
(119 120)
(121 109)
(122 111)
(114 123)
(101 117)
(124 115)
(125 126)
(127 128)
(129 130)
(131 129)
(106 132)
(118 133)
(134 135)
(135 136)
(136 137)
(138 139)
(139 103)
(140 107)
(141 119)
(110 105)
(123 121)
(108 122)
(112 124)
(133 113)
(116 141)
(120 102)
(130 142)
(143 131)
(104 140)
(142 127)
(137 144)
(128 125)
(126 1)
(0 134)
(132 143)
(144 138)
(145 146)
(147 148)
(149 150)
(151 152)
(146 153)
(148 145)
(154 155)
(156 157)
(158 159)
(159 160)
(161 162)
(160 163)
(164 165)
(163 166)
(166 167)
(167 168)
(169 170)
(168 171)
(152 147)
(153 1)
(171 172)
(162 173)
(173 154)
(2 149)
(172 2)
(155 156)
(36 169)
(170 164)
(150 151)
(157 158)
(165 161)
(3 4)
(5 6)
(7 2)
(8 9)
(174 3)
(175 176)
(39 177)
(178 179)
(180 34)
(40 181)
(182 35)
(183 184)
(185 186)
(187 188)
(6 189)
(190 191)
(192 193)
(194 195)
(196 197)
(198 199)
(200 201)
(184 202)
(203 5)
(204 205)
(206 207)
(208 209)
(201 210)
(211 7)
(9 212)
(213 8)
(214 215)
(216 217)
(218 219)
(37 220)
(221 196)
(222 223)
(177 224)
(207 225)
(224 204)
(197 226)
(227 228)
(199 229)
(230 231)
(231 232)
(233 234)
(235 236)
(237 238)
(239 240)
(241 242)
(243 221)
(244 245)
(246 247)
(248 249)
(250 251)
(252 253)
(254 211)
(255 256)
(257 258)
(259 208)
(209 260)
(261 214)
(262 263)
(264 265)
(266 227)
(263 267)
(267 268)
(269 270)
(4 271)
(272 273)
(210 241)
(202 203)
(249 237)
(205 200)
(274 192)
(275 264)
(226 276)
(191 274)
(277 278)
(278 262)
(268 279)
(220 230)
(232 280)
(280 269)
(195 281)
(281 250)
(253 282)
(282 283)
(283 175)
(284 261)
(242 285)
(285 243)
(234 182)
(286 287)
(288 286)
(289 288)
(290 289)
(217 290)
(291 216)
(256 291)
(292 257)
(293 292)
(212 185)
(181 294)
(236 295)
(295 296)
(296 297)
(297 298)
(298 218)
(219 299)
(299 259)
(260 300)
(300 187)
(301 213)
(223 248)
(225 222)
(265 302)
(279 303)
(273 304)
(193 305)
(306 277)
(229 307)
(308 284)
(276 183)
(245 180)
(240 309)
(287 233)
(294 235)
(310 272)
(238 311)
(309 33)
(302 246)
(312 275)
(307 174)
(270 194)
(215 310)
(311 244)
(271 178)
(186 293)
(188 301)
(313 266)
(305 306)
(304 239)
(251 252)
(176 254)
(258 255)
(228 206)
(189 312)
(247 308)
(303 198)
(179 313)
(38 190)
(314 315)
(316 317)
(27 318)
(318 319)
(320 321)
(322 323)
(324 314)
(315 316)
(325 326)
(327 328)
(329 330)
(328 325)
(330 327)
(326 331)
(332 333)
(334 332)
(331 335)
(336 337)
(338 336)
(339 338)
(340 339)
(335 341)
(319 340)
(341 342)
(342 343)
(317 322)
(344 334)
(10 324)
(343 10)
(321 3)
(337 344)
(323 320)
(333 329)
(11 10)
(345 346)
(347 348)
(349 350)
(351 352)
(353 354)
(355 356)
(357 358)
(32 359)
(360 361)
(354 362)
(361 357)
(362 360)
(359 353)
(352 355)
(356 363)
(363 364)
(358 351)
(346 11)
(348 345)
(365 347)
(366 365)
(350 366)
(364 349)
(367 368)
(369 370)
(371 372)
(373 374)
(368 375)
(370 367)
(374 369)
(375 11)
(4 371)
(372 373)
(376 377)
(378 379)
(28 380)
(380 381)
(382 383)
(384 385)
(386 376)
(377 378)
(387 388)
(389 390)
(391 392)
(390 387)
(392 389)
(388 393)
(394 395)
(396 394)
(393 397)
(398 399)
(400 398)
(401 400)
(402 401)
(397 403)
(381 402)
(403 404)
(404 405)
(379 384)
(406 396)
(12 386)
(405 12)
(383 8)
(399 406)
(385 382)
(395 391)
(13 12)
(407 408)
(409 410)
(411 412)
(413 414)
(415 416)
(417 418)
(419 420)
(421 422)
(29 423)
(424 425)
(418 426)
(425 421)
(426 424)
(423 417)
(416 419)
(422 415)
(420 427)
(427 428)
(408 13)
(410 407)
(412 409)
(414 411)
(428 413)
(429 430)
(431 432)
(433 434)
(435 436)
(430 437)
(432 429)
(436 431)
(437 13)
(9 433)
(434 435)
(438 439)
(440 441)
(30 442)
(442 443)
(444 445)
(446 447)
(448 438)
(439 440)
(449 450)
(451 452)
(453 454)
(452 449)
(454 451)
(450 455)
(456 457)
(458 456)
(455 459)
(460 461)
(462 460)
(463 462)
(464 463)
(459 465)
(443 464)
(465 466)
(466 467)
(441 446)
(468 458)
(14 448)
(467 14)
(445 5)
(461 468)
(447 444)
(457 453)
(15 14)
(469 470)
(471 472)
(473 474)
(475 476)
(477 478)
(479 480)
(481 482)
(483 484)
(31 485)
(486 487)
(480 488)
(487 483)
(488 486)
(485 479)
(478 481)
(482 489)
(489 490)
(484 477)
(470 15)
(474 469)
(476 473)
(472 475)
(490 471)
(491 492)
(493 494)
(495 496)
(497 498)
(492 499)
(494 491)
(498 493)
(499 15)
(6 495)
(496 497)
(500 501)
(502 503)
(504 505)
(506 507)
(508 500)
(501 502)
(503 506)
(0 508)
(505 7)
(507 504)
(16 17)
(18 509)
(41 16)
(19 41)
(510 18)
(511 20)
(21 17)
(511 512)
(513 21)
(22 42)
(42 514)
(515 22)
(19 509)
(42 19)
(23 516)
(23 22)
(517 518)
(24 43)
(519 24)
(23 44)
(24 41)
(514 520)
(517 44)
(521 522)
(41 44)
(42 43)
(20 16)
(44 43)
(523 25)
(26 524)
(525 526)
(527 528)
(524 529)
(530 525)
(531 532)
(533 534)
(529 533)
(526 523)
(535 536)
(27 537)
(29 28)
(31 30)
(32 27)
(534 538)
(539 540)
(541 542)
(543 544)
(537 545)
(546 547)
(548 549)
(538 543)
(544 541)
(550 527)
(545 546)
(551 552)
(553 554)
(555 556)
(556 548)
(547 557)
(558 559)
(560 561)
(562 563)
(564 565)
(566 567)
(568 569)
(570 571)
(572 573)
(574 575)
(576 577)
(578 579)
(580 572)
(581 574)
(582 576)
(583 584)
(585 586)
(587 588)
(589 590)
(591 592)
(593 594)
(595 583)
(563 587)
(596 578)
(586 558)
(579 570)
(552 539)
(588 597)
(590 598)
(561 589)
(565 591)
(599 600)
(601 602)
(603 604)
(584 605)
(606 581)
(607 606)
(608 609)
(605 599)
(528 610)
(611 612)
(613 603)
(614 530)
(602 596)
(609 582)
(610 580)
(615 616)
(617 618)
(559 550)
(619 601)
(620 531)
(621 535)
(622 553)
(623 624)
(624 613)
(600 619)
(612 622)
(536 608)
(532 607)
(625 621)
(626 625)
(627 628)
(628 620)
(554 551)
(542 629)
(629 623)
(630 631)
(632 633)
(631 626)
(633 627)
(634 635)
(636 637)
(638 639)
(637 640)
(641 642)
(643 644)
(645 636)
(646 634)
(647 632)
(648 630)
(640 643)
(649 650)
(651 652)
(653 654)
(655 638)
(656 657)
(652 658)
(659 660)
(661 641)
(654 662)
(635 649)
(639 647)
(662 663)
(664 665)
(666 32)
(663 666)
(644 651)
(642 656)
(667 655)
(658 664)
(28 661)
(30 659)
(592 668)
(669 653)
(604 593)
(571 670)
(650 669)
(569 671)
(557 568)
(657 672)
(594 566)
(672 648)
(33 595)
(34 560)
(35 562)
(36 564)
(567 37)
(573 38)
(575 39)
(577 40)
(670 555)
(549 31)
(671 585)
(665 29)
(616 673)
(618 674)
(674 646)
(673 645)
(598 617)
(597 615)
(668 611)
(540 614)
(660 667)
(25 675)
(675 26)
(44 42)
(41 43)
)

// concaveStart mixedStart nonFeatureStart
25 25 45
// internalStart flatStart openStart multipleStart
528 694 694 694
// normals

1365
(
(-0.809393 0.521624 -0.269798)
(-0.559758 -0.293844 0.774807)
(0.809393 -0.521624 0.269798)
(0.859778 -0.479175 0.176557)
(-0.831317 -0.555768 -0.00589573)
(0 0 -1)
(-0.634479 -0.772919 -0.00571402)
(0 0 -1)
(-0.772919 0.63448 -0.00559331)
(0 0 -1)
(0.83126 -0.55573 -0.0130706)
(-0 0 -1)
(-0.923604 0.383108 -0.013569)
(0 0 -1)
(0.881657 -0.471678 -0.0141548)
(-0 0 -1)
(0.88166 0.47168 -0.0138849)
(0 -0 -1)
(-0.881669 0.471685 -0.0131507)
(0 0 -1)
(-0.471685 -0.881669 -0.0131555)
(0 0 -1)
(0.707036 -0.707036 -0.014155)
(-0 0 -1)
(0.70703 0.70703 -0.0147732)
(0 -0 -1)
(-0.707032 -0.707032 -0.0145607)
(0 0 -1)
(-0.707032 0.707032 -0.0145683)
(0 0 -1)
(-0.383107 -0.923601 -0.0137814)
(0 0 -1)
(0.471676 0.881652 -0.014522)
(0 -0 -1)
(0.471678 -0.881657 -0.0141548)
(-0 0 -1)
(-0.881649 -0.471674 -0.0147661)
(0 0 -1)
(-0.471678 0.881657 -0.0141548)
(0 0 -1)
(-0.923619 -0.383115 -0.0122939)
(0 0 -1)
(-0.956667 0.290852 -0.0139183)
(0 0 -1)
(-0.290852 -0.956667 -0.0139183)
(0 0 -1)
(0.956604 -0.290832 -0.018049)
(0 0 -1)
(0.956667 0.290852 -0.0139157)
(0 -0 -1)
(0.383104 0.923595 -0.0142812)
(0 0 -1)
(-0.383113 0.923616 -0.0125546)
(0 0 -1)
(0.290847 0.956653 -0.0149338)
(0 0 -1)
(0.290851 -0.956664 -0.0141555)
(-0 0 -1)
(-0.956606 -0.290833 -0.0179438)
(0 0 -1)
(-0.290833 0.956606 -0.0179389)
(0 0 -1)
(0.923598 0.383106 -0.0139978)
(0 -0 -1)
(-0.980536 0.195802 -0.0145161)
(0 0 -1)
(-0.195802 -0.980536 -0.0145167)
(0 0 -1)
(0.980553 -0.195806 -0.0132597)
(0 0 -1)
(0.980565 0.195808 -0.0122882)
(0 -0 -1)
(0.1958 0.980523 -0.0154241)
(0 0 -1)
(-0.980559 -0.195807 -0.0128034)
(0 0 -1)
(-0.195807 0.980559 -0.0127996)
(0 0 -1)
(0.195799 -0.980521 -0.0155187)
(-0 0 -1)
(0.831244 0.555719 -0.014518)
(0 -0 -1)
(0.923583 -0.3831 -0.0151361)
(0 0 -1)
(-0.772872 -0.634441 -0.0124341)
(0 0 -1)
(-0.634437 0.772868 -0.0128476)
(0 0 -1)
(-0.555728 -0.831257 -0.0133341)
(0 0 -1)
(-0.831258 0.555728 -0.0133102)
(0 0 -1)
(0.772855 0.634427 -0.0140906)
(0 -0 -1)
(0.0988758 0.995017 -0.012835)
(0 0 -1)
(-0.0988758 -0.995017 -0.0128493)
(0 0 -1)
(-0.995017 0.0988758 -0.0128493)
(0 0 -1)
(0.995004 -0.0988745 -0.0137872)
(0 0 -1)
(0.995017 0.0988758 -0.0128493)
(0 -0 -1)
(0.0988745 -0.995004 -0.0138093)
(-0 0 -1)
(-0.0988758 0.995017 -0.0128493)
(0 0 -1)
(-0.995017 -0.0988758 -0.0128493)
(0 0 -1)
(-0.555732 0.831263 -0.0128011)
(0 0 -1)
(0.772805 -0.634386 -0.0180951)
(-0 0 -1)
(0.634413 0.772839 -0.0155026)
(0 -0 -1)
(0.634426 -0.772854 -0.0141126)
(-0 0 -1)
(0.555718 0.831243 -0.0145854)
(0 -0 -1)
(0.555681 -0.831187 -0.0186345)
(-0 0 -1)
(0.383076 -0.923527 -0.0187236)
(-0 0 -1)
(0.438424 -1.1192e-06 0.898768)
(0 -1 0)
(0.438424 1.1192e-06 0.898768)
(0 1 0)
(0.438423 0 0.898769)
(1 -0 0)
(0.438423 -2.1167e-06 0.898769)
(0 1 0)
(0.438423 0 0.898769)
(0 -1 0)
(0.438423 0 0.898769)
(0 1 0)
(0.438424 -1.07142e-06 0.898768)
(0 -1 -0)
(0.438424 1.07142e-06 0.898768)
(0 1 0)
(0.438423 -1.59406e-06 0.898769)
(0 -1 0)
(0.438423 1.59406e-06 0.898769)
(0 1 0)
(0.438423 -1.59406e-06 0.898769)
(0 -1 0)
(0.438423 1.59406e-06 0.898769)
(0 1 0)
(0.438424 -1.07142e-06 0.898768)
(0 -1 0)
(0.438424 1.07142e-06 0.898768)
(0 1 0)
(0.438424 -1.07142e-06 0.898768)
(0 -1 0)
(0.438424 -1.07142e-06 0.898768)
(0 -1 0)
(0.438424 1.07142e-06 0.898768)
(0 1 0)
(0.438424 1.07142e-06 0.898768)
(0 -1 0)
(0.438424 1.07142e-06 0.898768)
(0 -1 0)
(0.438424 1.07142e-06 0.898768)
(0 -1 0)
(0.438424 1.07142e-06 0.898768)
(0 -1 0)
(0.438424 1.07142e-06 0.898768)
(0 -1 -0)
(0.438424 -1.07142e-06 0.898768)
(0 -1 0)
(0.438424 -1.07142e-06 0.898768)
(0 1 0)
(0.438423 -2.61343e-08 0.898769)
(0 1 0)
(0.438424 -1.07142e-06 0.898768)
(0 1 0)
(0.438424 -1.07142e-06 0.898768)
(0 1 0)
(0.438424 -1.07142e-06 0.898768)
(0 1 0)
(0.438424 -1.07142e-06 0.898768)
(0 1 0)
(0.438424 1.07142e-06 0.898768)
(0 1 0)
(0.438423 -5.48774e-07 0.898769)
(0 -1 0)
(0.438423 -5.48774e-07 0.898769)
(0 -1 0)
(0.438423 5.48774e-07 0.898769)
(0 1 0)
(0.438423 5.48774e-07 0.898769)
(0 1 0)
(0.438424 -1.07142e-06 0.898768)
(0 -1 0)
(0.438424 1.07142e-06 0.898768)
(0 1 0)
(0.438424 1.07142e-06 0.898768)
(0 1 0)
(0.438424 1.07142e-06 0.898768)
(0 -1 0)
(0.438423 2.1167e-06 0.898769)
(0 -1 0)
(0.438424 -1.07142e-06 0.898768)
(0 1 0)
(0.438424 1.07142e-06 0.898768)
(0 -1 0)
(0.438424 -1.07142e-06 0.898768)
(0 1 0)
(0.438423 2.61343e-08 0.898769)
(0 -1 0)
(0.438424 1.07142e-06 0.898768)
(0 -1 -0)
(0.438424 -1.07142e-06 0.898768)
(0 1 0)
(0.438424 1.07142e-06 0.898768)
(0 -1 0)
(0.438424 -1.07142e-06 0.898768)
(0 1 0)
(0 -1 -0)
(1 0 0)
(0 -1 -0)
(1 0 0)
(0 -1 -0)
(1 0 0)
(0 -1 -0)
(1 0 0)
(0 -1 -0)
(1 0 0)
(0 -1 -0)
(1 0 0)
(0 -1 0)
(0 0 -1)
(0 -1 0)
(0 0 -1)
(0 -1 0)
(0 0 -1)
(0 -1 0)
(0 0 -1)
(0 -1 0)
(0 0 -1)
(0 -1 0)
(0 0 -1)
(0 -1 0)
(0 0 -1)
(0 -1 0)
(0 0 -1)
(0 -1 0)
(0 0 -1)
(0 -1 0)
(0 0 -1)
(0 -1 0)
(0 0 -1)
(0 -1 0)
(0 0 -1)
(0 -1 -0)
(1 0 0)
(0 -1 -0)
(1 0 0)
(0 -1 0)
(0 0 -1)
(0 -1 0)
(0 0 -1)
(0 -1 0)
(0 0 -1)
(0 -1 -0)
(1 0 0)
(0 -1 0)
(0 0 -1)
(0 -1 0)
(0 0 -1)
(0 -1 0)
(0 0 -1)
(0 -1 0)
(0 0 -1)
(0 -1 -0)
(1 0 0)
(0 -1 0)
(0 0 -1)
(0 -1 0)
(0 0 -1)
(0 0 -1)
(0 -1 0)
(0 0 -1)
(0 1 0)
(0 -0 -1)
(1 0 0)
(0 0 -1)
(-1 0 0)
(0 -0 -1)
(1 0 0)
(0 0 -1)
(0 1 0)
(0 0 -1)
(-1 0 0)
(0 0 -1)
(-1 0 0)
(0 0 -1)
(-1 0 0)
(0 0 -1)
(0 -1 0)
(0 0 -1)
(0 1 0)
(0 0 -1)
(-1 0 0)
(0 0 -1)
(0 1 0)
(0 0 -1)
(0 -1 0)
(0 -0 -1)
(1 0 0)
(0 -0 -1)
(1 0 0)
(0 -0 -1)
(1 0 0)
(0 0 -1)
(0 1 0)
(0 0 -1)
(-1 0 0)
(0 -0 -1)
(1 0 0)
(0 0 -1)
(-1 0 0)
(0 0 -1)
(-1 0 0)
(0 0 -1)
(-1 0 0)
(0 0 -1)
(-1 0 0)
(0 0 -1)
(-1 0 0)
(0 0 -1)
(0 -1 0)
(0 0 -1)
(-1 0 0)
(0 0 -1)
(0 1 0)
(0 0 -1)
(0 1 0)
(0 0 -1)
(0 -1 0)
(0 -0 -1)
(1 0 0)
(0 0 -1)
(0 1 0)
(0 0 -1)
(0 -1 0)
(0 0 -1)
(0 1 0)
(0 0 -1)
(-1 0 0)
(0 0 -1)
(-1 0 0)
(0 0 -1)
(-1 0 0)
(0 0 -1)
(-1 0 0)
(0 0 -1)
(-1 0 0)
(0 0 -1)
(-1 0 0)
(0 0 -1)
(-1 0 0)
(0 -0 -1)
(1 0 0)
(0 0 -1)
(0 1 0)
(0 0 -1)
(0 1 0)
(0 0 -1)
(0 1 0)
(0 0 -1)
(0 -1 0)
(0 0 -1)
(-1 0 0)
(0 -0 -1)
(1 0 0)
(0 0 -1)
(-1 0 0)
(0 0 -1)
(-1 0 0)
(0 0 -1)
(-1 0 0)
(0 -0 -1)
(1 0 0)
(0 0 -1)
(-1 0 0)
(0 0 -1)
(0 1 0)
(0 0 -1)
(0 1 0)
(0 0 -1)
(0 1 0)
(0 0 -1)
(0 1 0)
(0 0 -1)
(0 1 0)
(0 0 -1)
(0 -1 0)
(0 0 -1)
(0 -1 0)
(0 -0 -1)
(1 0 0)
(0 -0 -1)
(1 0 0)
(0 -0 -1)
(1 0 0)
(0 0 -1)
(-1 0 0)
(0 -0 -1)
(1 0 0)
(0 -0 -1)
(1 0 0)
(0 0 -1)
(0 1 0)
(0 0 -1)
(-1 0 0)
(0 -0 -1)
(1 0 0)
(0 0 -1)
(-1 0 0)
(0 0 -1)
(-1 0 0)
(0 0 -1)
(-1 0 0)
(0 0 -1)
(-1 0 0)
(0 -0 -1)
(1 0 0)
(0 -0 -1)
(1 0 0)
(0 0 -1)
(-1 0 0)
(0 -0 -1)
(1 0 0)
(0 -0 -1)
(1 0 0)
(0 -0 -1)
(1 0 0)
(0 -0 -1)
(1 0 0)
(0 0 -1)
(0 1 0)
(0 0 -1)
(0 1 0)
(0 0 -1)
(0 1 0)
(0 0 -1)
(0 1 0)
(0 0 -1)
(0 1 0)
(0 0 -1)
(0 1 0)
(0 0 -1)
(0 1 0)
(0 0 -1)
(0 1 0)
(0 -0 -1)
(1 0 0)
(0 0 -1)
(-1 0 0)
(0 0 -1)
(-1 0 0)
(0 0 -1)
(0 1 0)
(0 0 -1)
(0 1 0)
(0 0 -1)
(0 1 0)
(0 0 -1)
(0 1 0)
(0 0 -1)
(0 1 0)
(0 0 -1)
(0 1 0)
(0 0 -1)
(0 1 0)
(0 0 -1)
(0 1 0)
(0 0 -1)
(0 1 0)
(0 0 -1)
(0 1 0)
(0 0 -1)
(0 1 0)
(0 0 -1)
(0 -1 0)
(0 0 -1)
(0 -1 0)
(0 0 -1)
(0 -1 0)
(0 0 -1)
(0 -1 0)
(0 0 -1)
(0 -1 0)
(0 0 -1)
(0 -1 0)
(0 0 -1)
(0 -1 0)
(0 0 -1)
(0 -1 0)
(0 0 -1)
(0 -1 0)
(0 0 -1)
(0 -1 0)
(0 0 -1)
(0 -1 0)
(0 0 -1)
(-1 0 0)
(0 0 -1)
(-1 0 0)
(0 -0 -1)
(1 0 0)
(0 -0 -1)
(1 0 0)
(0 -0 -1)
(1 0 0)
(0 -0 -1)
(1 0 0)
(0 -0 -1)
(1 0 0)
(0 -0 -1)
(1 0 0)
(0 -0 -1)
(1 0 0)
(0 0 -1)
(-1 0 0)
(0 0 -1)
(-1 0 0)
(0 -0 -1)
(1 0 0)
(0 0 -1)
(0 1 0)
(0 0 -1)
(0 -1 0)
(0 -0 -1)
(1 0 0)
(0 0 -1)
(-1 0 0)
(0 -0 -1)
(1 0 0)
(0 -0 -1)
(1 0 0)
(0 -0 -1)
(1 0 0)
(0 -0 -1)
(1 0 0)
(0 0 -1)
(0 1 0)
(0 -0 -1)
(1 0 0)
(0 0 -1)
(-1 0 0)
(0 0 -1)
(-1 0 0)
(0 0 -1)
(0 1 0)
(0 0 -1)
(0 -1 0)
(0 0 -1)
(-1 0 0)
(0 -0 -1)
(1 0 0)
(0 -0 -1)
(1 0 0)
(0 0 -1)
(0 1 0)
(0 0 -1)
(0 1 0)
(0 0 -1)
(0 1 0)
(0 0 -1)
(-1 0 0)
(0 -0 -1)
(1 0 0)
(0 -0 -1)
(1 0 0)
(0 -0 -1)
(1 0 0)