/*--------------------------------*- C++ -*----------------------------------*\
| =========                 |                                                 |
| \\      /  F ield         | OpenFOAM: The Open Source CFD Toolbox           |
|  \\    /   O peration     | Version:  2412                                  |
|   \\  /    A nd           | Website:  www.openfoam.com                      |
|    \\/     M anipulation  |                                                 |
\*---------------------------------------------------------------------------*/
FoamFile
{
    version     2.0;
    format      ascii;
    arch        "LSB;label=32;scalar=64";
    class       volScalarField;
    location    "0";
    object      e;
}
// * * * * * * * * * * * * * * * * * * * * * * * * * * * * * * * * * * * * * //

dimensions      [0 2 -2 0 0 0 0];

internalField   uniform 200000;

boundaryField
{
    inlet
    {
        type            fixedValue;
        value           uniform 200000;
    }
    outlet
    {
        type            inletOutlet;
        inletValue      uniform 200000;
        value           uniform 200000;
    }
    atmosphere
    {
        type            inletOutlet;
        inletValue      uniform 200000;
        value           uniform 200000;
    }
    rocket
    {
        type            zeroGradient;
    }
    procBoundary1to0
    {
        type            processor;
        value           uniform 200000;
    }
    procBoundary1to2
    {
        type            processor;
        value           uniform 200000;
    }
    procBoundary1to3
    {
        type            processor;
        value           uniform 200000;
    }
}


// ************************************************************************* //
