/*--------------------------------*- C++ -*----------------------------------*\
| =========                 |                                                 |
| \\      /  F ield         | OpenFOAM: The Open Source CFD Toolbox           |
|  \\    /   O peration     | Version:  2412                                  |
|   \\  /    A nd           | Website:  www.openfoam.com                      |
|    \\/     M anipulation  |                                                 |
\*---------------------------------------------------------------------------*/
// * * * * * * * * * * * * * * * * * * * * * * * * * * * * * * * * * * * * * //
FoamFile
{
    version         2;
    format          ascii;
    class           dictionary;
    object          controlDict;
}

application     simpleFoam;

startFrom       startTime;

stopAt          endTime;

endTime         0.005;

deltaT          1e-08;

writeControl    runTime;

writeInterval   1e-06;

purgeWrite      2;

writeFormat     ascii;

writePrecision  6;

writeCompression off;

timeFormat      general;

timePrecision   6;

runTimeModifiable true;

functions
{
    forces
    {
        type            forceCoeffs;
        libs            ( "libforces.so" );
        writeControl    writeTime;
        log             false;
        patches         ( rocket );
        p               p;
        U               U;
        rho             rhoInf;
        rhoInf          1.225;
        magUInf         500;
        lRef            1;
        Aref            3.14;
        liftDir         ( 0 1 0 );
        dragDir         ( 0 0 -1 );
        CofR            ( 0 0 0 );
    }
}

startTime       0;

adjustTimeStep  yes;

maxCo           0.05;


// ************************************************************************* //
