/*--------------------------------*- C++ -*----------------------------------*\
| =========                 |                                                 |
| \\      /  F ield         | OpenFOAM: The Open Source CFD Toolbox           |
|  \\    /   O peration     | Version:  2412                                  |
|   \\  /    A nd           | Website:  www.openfoam.com                      |
|    \\/     M anipulation  |                                                 |
\*---------------------------------------------------------------------------*/
FoamFile
{
    version     2.0;
    format      ascii;
    arch        "LSB;label=32;scalar=64";
    class       dictionary;
    location    "1500/uniform/functionObjects";
    object      functionObjectProperties;
}
// * * * * * * * * * * * * * * * * * * * * * * * * * * * * * * * * * * * * * //

cdf7e925f5746741c316f5fbcf39ad0dfca90775
{
    forces
    {
        scalar
        {
            Cd              0.2977175844387037;
            CdPressure      0.2783092179482473;
            CdViscous       0.01940836649045645;
            CdInternal      0;
            Cd(f)           0.142779004767923;
            Cd(f)Pressure   0.1330660177108317;
            Cd(f)Viscous    0.00971298705709135;
            Cd(f)Internal   0;
            Cd(r)           0.1549385796707806;
            Cd(r)Pressure   0.1452432002374155;
            Cd(r)Viscous    0.009695379433365103;
            Cd(r)Internal   0;
            Cl              0.05223476902081464;
            ClPressure      0.05213270938660069;
            ClViscous       0.0001020596342139446;
            ClInternal      0;
            Cl(f)           0.1080205309330442;
            Cl(f)Pressure   0.1077307881126875;
            Cl(f)Viscous    0.0002897428203567177;
            Cl(f)Internal   0;
            Cl(r)           -0.0557857619122296;
            Cl(r)Pressure   -0.05559807872608682;
            Cl(r)Viscous    -0.0001876831861427732;
            Cl(r)Internal   0;
            CmPitch         0.08190314642263692;
            CmPitchPressure 0.08166443341938717;
            CmPitchViscous  0.0002387130032497454;
            CmPitchInternal 0;
            CmRoll          -0.006079787451428805;
            CmRollPressure  -0.006088591263291928;
            CmRollViscous   8.803811863123953e-06;
            CmRollInternal  0;
            CmYaw           0.01085536678590836;
            CmYawPressure   0.01084039330350155;
            CmYawViscous    1.497348240681004e-05;
            CmYawInternal   0;
            Cs              -0.006783880377242897;
            CsPressure      -0.006736358537659482;
            CsViscous       -4.752183958341451e-05;
            CsInternal      0;
            Cs(f)           0.00746342659728691;
            Cs(f)Pressure   0.007472214034671808;
            Cs(f)Viscous    -8.787437384897217e-06;
            Cs(f)Internal   0;
            Cs(r)           -0.01424730697452981;
            Cs(r)Pressure   -0.01420857257233129;
            Cs(r)Viscous    -3.873440219851729e-05;
            Cs(r)Internal   0;
        }
    }
    solverInfo
    {
        scalar
        {
            Ux_initial      0.000316473;
            Ux_final        2.41393e-05;
            Uy_initial      0.000321515;
            Uy_final        2.46983e-05;
            Uz_initial      7.81364e-05;
            Uz_final        5.20984e-06;
            p_initial       0.00134798;
            p_final         5.6573e-06;
        }
        label
        {
            Ux_iters        2;
            Uy_iters        2;
            Uz_iters        6;
            p_iters         3;
        }
    }
}


// ************************************************************************* //
