/*--------------------------------*- C++ -*----------------------------------*\
| =========                 |                                                 |
| \\      /  F ield         | OpenFOAM: The Open Source CFD Toolbox           |
|  \\    /   O peration     | Version:  2412                                  |
|   \\  /    A nd           | Website:  www.openfoam.com                      |
|    \\/     M anipulation  |                                                 |
\*---------------------------------------------------------------------------*/
FoamFile
{
    version     2.0;
    format      ascii;
    arch        "LSB;label=32;scalar=64";
    class       dictionary;
    location    "502/uniform/functionObjects";
    object      functionObjectProperties;
}
// * * * * * * * * * * * * * * * * * * * * * * * * * * * * * * * * * * * * * //

cdf7e925f5746741c316f5fbcf39ad0dfca90775
{
    forces
    {
        scalar
        {
            Cd              32.84082626869896;
            CdPressure      32.69943328124366;
            CdViscous       0.1413929874553029;
            CdInternal      0;
            Cd(f)           16.41529475695218;
            Cd(f)Pressure   16.34454528076846;
            Cd(f)Viscous    0.07074947618371748;
            Cd(f)Internal   0;
            Cd(r)           16.42553151174678;
            Cd(r)Pressure   16.3548880004752;
            Cd(r)Viscous    0.07064351127158543;
            Cd(r)Internal   0;
            Cl              0.1916512715276184;
            ClPressure      0.1942189137728866;
            ClViscous       -0.002567642245268182;
            ClInternal      0;
            Cl(f)           0.04975999904622114;
            Cl(f)Pressure   0.04527868196930621;
            Cl(f)Viscous    0.004481317076914938;
            Cl(f)Internal   0;
            Cl(r)           0.1418912724813972;
            Cl(r)Pressure   0.1489402318035803;
            Cl(r)Viscous    -0.007048959322183121;
            Cl(r)Internal   0;
            CmPitch         -0.04606563671758804;
            CmPitchPressure -0.05183077491713707;
            CmPitchViscous  0.00576513819954903;
            CmPitchInternal 0;
            CmRoll          -0.005118377397302304;
            CmRollPressure  -0.005171359853368324;
            CmRollViscous   5.298245606601963e-05;
            CmRollInternal  0;
            CmYaw           -1.07562065616858;
            CmYawPressure   -1.122968214134786;
            CmYawViscous    0.04734755796620586;
            CmYawInternal   0;
            Cs              -1.83471863415436;
            CsPressure      -1.854494344360144;
            CsViscous       0.01977571020578487;
            CsInternal      0;
            Cs(f)           -1.99297997324576;
            Cs(f)Pressure   -2.050215386314858;
            Cs(f)Viscous    0.0572354130690983;
            Cs(f)Internal   0;
            Cs(r)           0.1582613390914002;
            Cs(r)Pressure   0.1957210419547136;
            Cs(r)Viscous    -0.03745970286331343;
            Cs(r)Internal   0;
        }
    }
}


// ************************************************************************* //
